Circuit: * C:\Users\eren\Documents\audio-power-amplifier\sims\power_supply\psu2_parasitics.asc

Direct Newton iteration for .op point succeeded.

Date: Sat Jun 06 16:20:30 2020
Total elapsed time: 0.101 seconds.

tnom = 27
temp = 27
method = modified trap
totiter = 9041
traniter = 9031
tranpoints = 2505
accept = 1862
rejected = 643
matrix size = 14
fillins = 4
solver = Normal
Matrix Compiler1: 1.13 KB object code size  0.2/0.1/[0.1]
Matrix Compiler2: off  [0.1]/0.1/0.1

