Circuit: * C:\Users\eren\Documents\audio-power-amplifier\sims\power_supply\psu_diode_bridge_gnd.asc

.OP point found by inspection.

Date: Sun Jun 07 22:54:31 2020
Total elapsed time: 0.074 seconds.

tnom = 27
temp = 27
method = modified trap
totiter = 10465
traniter = 10465
tranpoints = 3103
accept = 2201
rejected = 902
matrix size = 14
fillins = 12
solver = Normal
Matrix Compiler1: 1.63 KB object code size  0.2/0.1/[0.1]
Matrix Compiler2: 1.35 KB object code size  0.1/0.1/[0.1]

