Circuit: * C:\Users\eren\Documents\audio-power-amplifier\sims\power_supply\psu_ideal.asc

Direct Newton iteration for .op point succeeded.

Date: Fri Jun 05 22:42:02 2020
Total elapsed time: 0.133 seconds.

tnom = 27
temp = 27
method = modified trap
totiter = 21274
traniter = 21264
tranpoints = 5227
accept = 3548
rejected = 1679
matrix size = 9
fillins = 4
solver = Normal
Matrix Compiler1: 750 bytes object code size  0.1/0.1/[0.1]
Matrix Compiler2: 783 bytes object code size  0.1/0.1/[0.1]

