Circuit: * C:\Users\eren\Documents\audio-power-amplifier\sims\power_supply\psu_centre_tap_gnd.asc

Direct Newton iteration for .op point succeeded.

Date: Sun Jun 07 22:46:23 2020
Total elapsed time: 0.115 seconds.

tnom = 27
temp = 27
method = modified trap
totiter = 9102
traniter = 9092
tranpoints = 2430
accept = 1864
rejected = 566
matrix size = 12
fillins = 8
solver = Normal
Matrix Compiler1: 1.04 KB object code size  0.2/0.1/[0.0]
Matrix Compiler2: 1.04 KB object code size  0.1/0.1/[0.1]

