Circuit: * C:\Users\eren\Documents\audio-power-amplifier\sims\power_supply\psu_sinlgle_rail.asc

Direct Newton iteration for .op point succeeded.

Date: Sat Jun 06 17:10:55 2020
Total elapsed time: 0.087 seconds.

tnom = 27
temp = 27
method = modified trap
totiter = 8979
traniter = 8969
tranpoints = 2468
accept = 1856
rejected = 612
matrix size = 12
fillins = 8
solver = Normal
Matrix Compiler1: 1.04 KB object code size  0.2/0.1/[0.1]
Matrix Compiler2: 1.04 KB object code size  0.1/0.1/[0.1]

