Circuit: * C:\Users\eren\Documents\audio-power-amplifier\sims\power_supply\psu_parasitics.asc

Direct Newton iteration for .op point succeeded.

Date: Fri Jun 05 22:59:15 2020
Total elapsed time: 0.251 seconds.

tnom = 27
temp = 27
method = modified trap
totiter = 8371
traniter = 8361
tranpoints = 2600
accept = 1807
rejected = 793
matrix size = 12
fillins = 8
solver = Normal
Matrix Compiler1: 1.04 KB object code size  0.1/0.1/[0.1]
Matrix Compiler2: off  [0.1]/0.1/0.1

