Circuit: * C:\Users\eren\Documents\audio-power-amplifier\sims\power_supply\psu_ideal.asc

Direct Newton iteration for .op point succeeded.

Date: Thu Jun 04 23:11:43 2020
Total elapsed time: 0.279 seconds.

tnom = 27
temp = 27
method = modified trap
totiter = 18260
traniter = 18250
tranpoints = 5261
accept = 3586
rejected = 1675
matrix size = 9
fillins = 4
solver = Normal
Matrix Compiler1:      41 opcodes  0.1/[0.1]/0.1
Matrix Compiler2: off  [0.0]/0.1/0.1

