Circuit: * C:\Users\eren\Documents\audio-power-amplifier\sims\power_supply\transformer_resonant_circuit.asc

Limiting rise time of source i1 to 0.01
Direct Newton iteration for .op point succeeded.

Date: Thu Jun 04 23:15:42 2020
Total elapsed time: 0.121 seconds.

tnom = 27
temp = 27
method = modified trap
totiter = 6753
traniter = 6750
tranpoints = 3376
accept = 2615
rejected = 761
matrix size = 4
fillins = 0
solver = Normal
Matrix Compiler1: 118 bytes object code size  0.0/0.0/[0.0]
Matrix Compiler2: 242 bytes object code size  0.0/0.0/[0.0]

