Circuit: * C:\Users\eren\Documents\audio-power-amplifier\sims\power_supply\unloaded_transformer.asc

WARNING: Node N001 is floating.
WARNING: Node N006 is floating.

WARNING: Less than two connections to node N007.  This node is used by L3.
WARNING: Less than two connections to node N006.  This node is used by R3.
.OP point found by inspection.

Date: Sun Jun 07 22:56:46 2020
Total elapsed time: 0.082 seconds.

tnom = 27
temp = 27
method = modified trap
totiter = 7008
traniter = 7008
tranpoints = 2676
accept = 1927
rejected = 749
matrix size = 12
fillins = 4
solver = Normal
Matrix Compiler1: 938 bytes object code size  0.1/0.1/[0.1]
Matrix Compiler2: 1002 bytes object code size  0.1/0.1/[0.1]

