Circuit: * D:\Program Files (xtra)\all\CoolStuff\audio-power-amplifier\Simulations\LTSpice\Transformer.asc

Direct Newton iteration for .op point succeeded.

Date: Tue Apr 24 23:51:04 2018
Total elapsed time: 0.078 seconds.

tnom = 27
temp = 27
method = modified trap
totiter = 2751
traniter = 2719
tranpoints = 1134
accept = 1107
rejected = 27
matrix size = 11
fillins = 2
solver = Normal
Matrix Compiler1:      35 opcodes  0.2/[0.0]/0.1
Matrix Compiler2: off  [0.2]/0.2/0.4

