Circuit: * D:\Program Files (xtra)\all\CoolStuff\audio-power-amplifier\Simulations\LTSpice\Transformer.asc

.OP point found by inspection.

Date: Sun Apr 08 18:38:20 2018
Total elapsed time: 0.080 seconds.

tnom = 27
temp = 27
method = modified trap
totiter = 3063
traniter = 3063
tranpoints = 1208
accept = 1165
rejected = 43
matrix size = 11
fillins = 2
solver = Normal
Matrix Compiler1: 610 bytes object code size  0.2/0.0/[0.0]
Matrix Compiler2: 827 bytes object code size  0.1/0.2/[0.0]

