Circuit: * D:\Program Files (xtra)\all\CoolStuff\audio-power-amplifier\Simulations\LTSpice\Transformer.asc

.OP point found by inspection.

Date: Tue Apr 03 21:36:00 2018
Total elapsed time: 0.092 seconds.

tnom = 27
temp = 27
method = modified trap
totiter = 3034
traniter = 3034
tranpoints = 1214
accept = 1172
rejected = 42
matrix size = 11
fillins = 2
solver = Normal
Matrix Compiler1: 610 bytes object code size  0.2/0.1/[0.1]
Matrix Compiler2: off  [0.1]/0.2/0.1

